[root]
type=Root
children=testsys
eventq_index=0
full_system=true
sim_quantum=0
time_sync_enable=false
time_sync_period=100000000000
time_sync_spin_threshold=100000000

[testsys]
type=ArmSystem
children=clk_domain cpu_cluster dvfs_handler iobridge iobus iocache mem_ctrls membus pci_devices0 pci_devices1 pci_devices2 pci_devices3 pci_devices4 realview terminal vncserver voltage_domain workload
auto_reset_addr=true
byte_order=little
cache_line_size=64
eventq_index=0
exit_on_work_items=false
gic_cpu_addr=738205696
have_crypto=false
have_large_asid_64=false
have_lpae=true
have_lse=true
have_pan=true
have_secel2=true
have_security=false
have_sve=true
have_tme=false
have_vhe=false
have_virtualization=false
highest_el_is_64=true
init_param=0
m5ops_base=268500992
mem_mode=timing
mem_ranges=2147483648:4294967296
memories=testsys.mem_ctrls.dram testsys.realview.bootmem testsys.realview.flash0 testsys.realview.flash1 testsys.realview.non_trusted_sram testsys.realview.trusted_sram testsys.realview.vram
mmap_using_noreserve=false
multi_proc=true
multi_thread=false
num_work_ids=16
phys_addr_range_64=40
readfile=/Users/c834u979/gem5-learning/gem5_config_scripts/rcS/single/hack_back_ckpt.rcS
redirect_paths=
reset_addr=0
semihosting=Null
shadow_rom_ranges=
shared_backstore=
sve_vl=1
symbolfile=
thermal_components=
thermal_model=Null
work_begin_ckpt_count=0
work_begin_cpu_id_exit=-1
work_begin_exit_count=0
work_cpus_ckpt_count=0
work_end_ckpt_count=0
work_end_exit_count=0
work_item_id=-1
workload=testsys.workload
system_port=testsys.membus.cpu_side_ports[1]

[testsys.clk_domain]
type=SrcClockDomain
clock=1000
domain_id=-1
eventq_index=0
init_perf_level=0
voltage_domain=testsys.voltage_domain

[testsys.cpu_cluster]
type=SubSystem
children=clk_domain cpus0 cpus1 cpus2 cpus3 l2 toL2Bus voltage_domain
eventq_index=0
thermal_domain=Null

[testsys.cpu_cluster.clk_domain]
type=SrcClockDomain
clock=250
domain_id=-1
eventq_index=0
init_perf_level=0
voltage_domain=testsys.cpu_cluster.voltage_domain

[testsys.cpu_cluster.cpus0]
type=MinorCPU
children=branchPred dcache dtb_walker_cache executeFuncUnits icache interrupts isa itb_walker_cache mmu power_state tracer
branchPred=testsys.cpu_cluster.cpus0.branchPred
checker=Null
clk_domain=testsys.cpu_cluster.clk_domain
cpu_id=0
decodeCycleInput=true
decodeInputBufferSize=3
decodeInputWidth=2
decodeToExecuteForwardDelay=1
do_checkpoint_insts=true
do_statistics_insts=true
enableIdling=true
eventq_index=0
executeAllowEarlyMemoryIssue=true
executeBranchDelay=1
executeCommitLimit=2
executeCycleInput=true
executeFuncUnits=testsys.cpu_cluster.cpus0.executeFuncUnits
executeInputBufferSize=7
executeInputWidth=2
executeIssueLimit=2
executeLSQMaxStoreBufferStoresPerCycle=2
executeLSQRequestsQueueSize=1
executeLSQStoreBufferSize=5
executeLSQTransfersQueueSize=2
executeMaxAccessesInMemory=2
executeMemoryCommitLimit=1
executeMemoryIssueLimit=1
executeMemoryWidth=0
executeSetTraceTimeOnCommit=true
executeSetTraceTimeOnIssue=false
fetch1FetchLimit=1
fetch1LineSnapWidth=0
fetch1LineWidth=0
fetch1ToFetch2BackwardDelay=1
fetch1ToFetch2ForwardDelay=1
fetch2CycleInput=true
fetch2InputBufferSize=2
fetch2ToDecodeForwardDelay=1
function_trace=false
function_trace_start=0
interrupts=testsys.cpu_cluster.cpus0.interrupts
isa=testsys.cpu_cluster.cpus0.isa
max_insts_all_threads=0
max_insts_any_thread=0
mmu=testsys.cpu_cluster.cpus0.mmu
numThreads=1
power_gating_on_idle=false
power_model=
power_state=testsys.cpu_cluster.cpus0.power_state
progress_interval=0
pwr_gating_latency=300
simpoint_start_insts=
socket_id=0
switched_out=false
syscallRetryLatency=10000
system=testsys
threadPolicy=RoundRobin
tracer=testsys.cpu_cluster.cpus0.tracer
workload=
dcache_port=testsys.cpu_cluster.cpus0.dcache.cpu_side
icache_port=testsys.cpu_cluster.cpus0.icache.cpu_side

[testsys.cpu_cluster.cpus0.branchPred]
type=TournamentBP
children=indirectBranchPred
BTBEntries=4096
BTBTagSize=16
RASSize=16
choiceCtrBits=2
choicePredictorSize=8192
eventq_index=0
globalCtrBits=2
globalPredictorSize=8192
indirectBranchPred=testsys.cpu_cluster.cpus0.branchPred.indirectBranchPred
instShiftAmt=2
localCtrBits=2
localHistoryTableSize=2048
localPredictorSize=2048
numThreads=1

[testsys.cpu_cluster.cpus0.branchPred.indirectBranchPred]
type=SimpleIndirectPredictor
eventq_index=0
indirectGHRBits=13
indirectHashGHR=true
indirectHashTargets=true
indirectPathLength=3
indirectSets=256
indirectTagSize=16
indirectWays=2
instShiftAmt=2
numThreads=1

[testsys.cpu_cluster.cpus0.dcache]
type=Cache
children=power_state replacement_policy tags
addr_ranges=0:18446744073709551615
assoc=2
clk_domain=testsys.cpu_cluster.clk_domain
clusivity=mostly_incl
compressor=Null
data_latency=2
demand_mshr_reserve=1
eventq_index=0
is_read_only=false
max_miss_count=0
move_contractions=true
mshrs=16
power_model=
power_state=testsys.cpu_cluster.cpus0.dcache.power_state
prefetch_on_access=false
prefetch_on_pf_hit=false
prefetcher=Null
replace_expansions=true
replacement_policy=testsys.cpu_cluster.cpus0.dcache.replacement_policy
response_latency=1
sequential_access=false
size=32768
system=testsys
tag_latency=2
tags=testsys.cpu_cluster.cpus0.dcache.tags
tgts_per_mshr=16
warmup_percentage=0
write_allocator=Null
write_buffers=16
writeback_clean=false
cpu_side=testsys.cpu_cluster.cpus0.dcache_port
mem_side=testsys.cpu_cluster.toL2Bus.cpu_side_ports[1]

[testsys.cpu_cluster.cpus0.dcache.power_state]
type=PowerState
clk_gate_bins=20
clk_gate_max=1000000000000
clk_gate_min=1000
default_state=UNDEFINED
eventq_index=0
leaders=
possible_states=

[testsys.cpu_cluster.cpus0.dcache.replacement_policy]
type=LRURP
eventq_index=0

[testsys.cpu_cluster.cpus0.dcache.tags]
type=BaseSetAssoc
children=indexing_policy power_state
assoc=2
block_size=64
clk_domain=testsys.cpu_cluster.clk_domain
entry_size=64
eventq_index=0
indexing_policy=testsys.cpu_cluster.cpus0.dcache.tags.indexing_policy
power_model=
power_state=testsys.cpu_cluster.cpus0.dcache.tags.power_state
replacement_policy=testsys.cpu_cluster.cpus0.dcache.replacement_policy
sequential_access=false
size=32768
system=testsys
tag_latency=2
warmup_percentage=0

[testsys.cpu_cluster.cpus0.dcache.tags.indexing_policy]
type=SetAssociative
assoc=2
entry_size=64
eventq_index=0
size=32768

[testsys.cpu_cluster.cpus0.dcache.tags.power_state]
type=PowerState
clk_gate_bins=20
clk_gate_max=1000000000000
clk_gate_min=1000
default_state=UNDEFINED
eventq_index=0
leaders=
possible_states=

[testsys.cpu_cluster.cpus0.dtb_walker_cache]
type=Cache
children=power_state replacement_policy tags
addr_ranges=0:18446744073709551615
assoc=8
clk_domain=testsys.cpu_cluster.clk_domain
clusivity=mostly_incl
compressor=Null
data_latency=4
demand_mshr_reserve=1
eventq_index=0
is_read_only=true
max_miss_count=0
move_contractions=true
mshrs=6
power_model=
power_state=testsys.cpu_cluster.cpus0.dtb_walker_cache.power_state
prefetch_on_access=false
prefetch_on_pf_hit=false
prefetcher=Null
replace_expansions=true
replacement_policy=testsys.cpu_cluster.cpus0.dtb_walker_cache.replacement_policy
response_latency=4
sequential_access=false
size=1024
system=testsys
tag_latency=4
tags=testsys.cpu_cluster.cpus0.dtb_walker_cache.tags
tgts_per_mshr=8
warmup_percentage=0
write_allocator=Null
write_buffers=16
writeback_clean=true
cpu_side=testsys.cpu_cluster.cpus0.mmu.dtb_walker.port
mem_side=testsys.cpu_cluster.toL2Bus.cpu_side_ports[3]

[testsys.cpu_cluster.cpus0.dtb_walker_cache.power_state]
type=PowerState
clk_gate_bins=20
clk_gate_max=1000000000000
clk_gate_min=1000
default_state=UNDEFINED
eventq_index=0
leaders=
possible_states=

[testsys.cpu_cluster.cpus0.dtb_walker_cache.replacement_policy]
type=LRURP
eventq_index=0

[testsys.cpu_cluster.cpus0.dtb_walker_cache.tags]
type=BaseSetAssoc
children=indexing_policy power_state
assoc=8
block_size=64
clk_domain=testsys.cpu_cluster.clk_domain
entry_size=64
eventq_index=0
indexing_policy=testsys.cpu_cluster.cpus0.dtb_walker_cache.tags.indexing_policy
power_model=
power_state=testsys.cpu_cluster.cpus0.dtb_walker_cache.tags.power_state
replacement_policy=testsys.cpu_cluster.cpus0.dtb_walker_cache.replacement_policy
sequential_access=false
size=1024
system=testsys
tag_latency=4
warmup_percentage=0

[testsys.cpu_cluster.cpus0.dtb_walker_cache.tags.indexing_policy]
type=SetAssociative
assoc=8
entry_size=64
eventq_index=0
size=1024

[testsys.cpu_cluster.cpus0.dtb_walker_cache.tags.power_state]
type=PowerState
clk_gate_bins=20
clk_gate_max=1000000000000
clk_gate_min=1000
default_state=UNDEFINED
eventq_index=0
leaders=
possible_states=

[testsys.cpu_cluster.cpus0.executeFuncUnits]
type=MinorFUPool
children=funcUnits0 funcUnits1 funcUnits2 funcUnits3 funcUnits4 funcUnits5 funcUnits6 funcUnits7
eventq_index=0
funcUnits=testsys.cpu_cluster.cpus0.executeFuncUnits.funcUnits0 testsys.cpu_cluster.cpus0.executeFuncUnits.funcUnits1 testsys.cpu_cluster.cpus0.executeFuncUnits.funcUnits2 testsys.cpu_cluster.cpus0.executeFuncUnits.funcUnits3 testsys.cpu_cluster.cpus0.executeFuncUnits.funcUnits4 testsys.cpu_cluster.cpus0.executeFuncUnits.funcUnits5 testsys.cpu_cluster.cpus0.executeFuncUnits.funcUnits6 testsys.cpu_cluster.cpus0.executeFuncUnits.funcUnits7

[testsys.cpu_cluster.cpus0.executeFuncUnits.funcUnits0]
type=MinorFU
children=opClasses timings
cantForwardFromFUIndices=
eventq_index=0
issueLat=1
opClasses=testsys.cpu_cluster.cpus0.executeFuncUnits.funcUnits0.opClasses
opLat=3
timings=testsys.cpu_cluster.cpus0.executeFuncUnits.funcUnits0.timings

[testsys.cpu_cluster.cpus0.executeFuncUnits.funcUnits0.opClasses]
type=MinorOpClassSet
children=opClasses
eventq_index=0
opClasses=testsys.cpu_cluster.cpus0.executeFuncUnits.funcUnits0.opClasses.opClasses

[testsys.cpu_cluster.cpus0.executeFuncUnits.funcUnits0.opClasses.opClasses]
type=MinorOpClass
eventq_index=0
opClass=IntAlu

[testsys.cpu_cluster.cpus0.executeFuncUnits.funcUnits0.timings]
type=MinorFUTiming
children=opClasses
description=Int
eventq_index=0
extraAssumedLat=0
extraCommitLat=0
extraCommitLatExpr=Null
mask=0
match=0
opClasses=testsys.cpu_cluster.cpus0.executeFuncUnits.funcUnits0.timings.opClasses
srcRegsRelativeLats=2
suppress=false

[testsys.cpu_cluster.cpus0.executeFuncUnits.funcUnits0.timings.opClasses]
type=MinorOpClassSet
eventq_index=0
opClasses=

[testsys.cpu_cluster.cpus0.executeFuncUnits.funcUnits1]
type=MinorFU
children=opClasses timings
cantForwardFromFUIndices=
eventq_index=0
issueLat=1
opClasses=testsys.cpu_cluster.cpus0.executeFuncUnits.funcUnits1.opClasses
opLat=3
timings=testsys.cpu_cluster.cpus0.executeFuncUnits.funcUnits1.timings

[testsys.cpu_cluster.cpus0.executeFuncUnits.funcUnits1.opClasses]
type=MinorOpClassSet
children=opClasses
eventq_index=0
opClasses=testsys.cpu_cluster.cpus0.executeFuncUnits.funcUnits1.opClasses.opClasses

[testsys.cpu_cluster.cpus0.executeFuncUnits.funcUnits1.opClasses.opClasses]
type=MinorOpClass
eventq_index=0
opClass=IntAlu

[testsys.cpu_cluster.cpus0.executeFuncUnits.funcUnits1.timings]
type=MinorFUTiming
children=opClasses
description=Int
eventq_index=0
extraAssumedLat=0
extraCommitLat=0
extraCommitLatExpr=Null
mask=0
match=0
opClasses=testsys.cpu_cluster.cpus0.executeFuncUnits.funcUnits1.timings.opClasses
srcRegsRelativeLats=2
suppress=false

[testsys.cpu_cluster.cpus0.executeFuncUnits.funcUnits1.timings.opClasses]
type=MinorOpClassSet
eventq_index=0
opClasses=

[testsys.cpu_cluster.cpus0.executeFuncUnits.funcUnits2]
type=MinorFU
children=opClasses timings
cantForwardFromFUIndices=
eventq_index=0
issueLat=1
opClasses=testsys.cpu_cluster.cpus0.executeFuncUnits.funcUnits2.opClasses
opLat=3
timings=testsys.cpu_cluster.cpus0.executeFuncUnits.funcUnits2.timings

[testsys.cpu_cluster.cpus0.executeFuncUnits.funcUnits2.opClasses]
type=MinorOpClassSet
children=opClasses
eventq_index=0
opClasses=testsys.cpu_cluster.cpus0.executeFuncUnits.funcUnits2.opClasses.opClasses

[testsys.cpu_cluster.cpus0.executeFuncUnits.funcUnits2.opClasses.opClasses]
type=MinorOpClass
eventq_index=0
opClass=IntMult

[testsys.cpu_cluster.cpus0.executeFuncUnits.funcUnits2.timings]
type=MinorFUTiming
children=opClasses
description=Mul
eventq_index=0
extraAssumedLat=0
extraCommitLat=0
extraCommitLatExpr=Null
mask=0
match=0
opClasses=testsys.cpu_cluster.cpus0.executeFuncUnits.funcUnits2.timings.opClasses
srcRegsRelativeLats=0
suppress=false

[testsys.cpu_cluster.cpus0.executeFuncUnits.funcUnits2.timings.opClasses]
type=MinorOpClassSet
eventq_index=0
opClasses=

[testsys.cpu_cluster.cpus0.executeFuncUnits.funcUnits3]
type=MinorFU
children=opClasses
cantForwardFromFUIndices=
eventq_index=0
issueLat=9
opClasses=testsys.cpu_cluster.cpus0.executeFuncUnits.funcUnits3.opClasses
opLat=9
timings=

[testsys.cpu_cluster.cpus0.executeFuncUnits.funcUnits3.opClasses]
type=MinorOpClassSet
children=opClasses
eventq_index=0
opClasses=testsys.cpu_cluster.cpus0.executeFuncUnits.funcUnits3.opClasses.opClasses

[testsys.cpu_cluster.cpus0.executeFuncUnits.funcUnits3.opClasses.opClasses]
type=MinorOpClass
eventq_index=0
opClass=IntDiv

[testsys.cpu_cluster.cpus0.executeFuncUnits.funcUnits4]
type=MinorFU
children=opClasses timings
cantForwardFromFUIndices=
eventq_index=0
issueLat=1
opClasses=testsys.cpu_cluster.cpus0.executeFuncUnits.funcUnits4.opClasses
opLat=6
timings=testsys.cpu_cluster.cpus0.executeFuncUnits.funcUnits4.timings

[testsys.cpu_cluster.cpus0.executeFuncUnits.funcUnits4.opClasses]
type=MinorOpClassSet
children=opClasses00 opClasses01 opClasses02 opClasses03 opClasses04 opClasses05 opClasses06 opClasses07 opClasses08 opClasses09 opClasses10 opClasses11 opClasses12 opClasses13 opClasses14 opClasses15 opClasses16 opClasses17 opClasses18 opClasses19 opClasses20 opClasses21 opClasses22 opClasses23 opClasses24 opClasses25 opClasses26 opClasses27 opClasses28 opClasses29 opClasses30 opClasses31 opClasses32 opClasses33 opClasses34 opClasses35 opClasses36 opClasses37 opClasses38 opClasses39 opClasses40 opClasses41
eventq_index=0
opClasses=testsys.cpu_cluster.cpus0.executeFuncUnits.funcUnits4.opClasses.opClasses00 testsys.cpu_cluster.cpus0.executeFuncUnits.funcUnits4.opClasses.opClasses01 testsys.cpu_cluster.cpus0.executeFuncUnits.funcUnits4.opClasses.opClasses02 testsys.cpu_cluster.cpus0.executeFuncUnits.funcUnits4.opClasses.opClasses03 testsys.cpu_cluster.cpus0.executeFuncUnits.funcUnits4.opClasses.opClasses04 testsys.cpu_cluster.cpus0.executeFuncUnits.funcUnits4.opClasses.opClasses05 testsys.cpu_cluster.cpus0.executeFuncUnits.funcUnits4.opClasses.opClasses06 testsys.cpu_cluster.cpus0.executeFuncUnits.funcUnits4.opClasses.opClasses07 testsys.cpu_cluster.cpus0.executeFuncUnits.funcUnits4.opClasses.opClasses08 testsys.cpu_cluster.cpus0.executeFuncUnits.funcUnits4.opClasses.opClasses09 testsys.cpu_cluster.cpus0.executeFuncUnits.funcUnits4.opClasses.opClasses10 testsys.cpu_cluster.cpus0.executeFuncUnits.funcUnits4.opClasses.opClasses11 testsys.cpu_cluster.cpus0.executeFuncUnits.funcUnits4.opClasses.opClasses12 testsys.cpu_cluster.cpus0.executeFuncUnits.funcUnits4.opClasses.opClasses13 testsys.cpu_cluster.cpus0.executeFuncUnits.funcUnits4.opClasses.opClasses14 testsys.cpu_cluster.cpus0.executeFuncUnits.funcUnits4.opClasses.opClasses15 testsys.cpu_cluster.cpus0.executeFuncUnits.funcUnits4.opClasses.opClasses16 testsys.cpu_cluster.cpus0.executeFuncUnits.funcUnits4.opClasses.opClasses17 testsys.cpu_cluster.cpus0.executeFuncUnits.funcUnits4.opClasses.opClasses18 testsys.cpu_cluster.cpus0.executeFuncUnits.funcUnits4.opClasses.opClasses19 testsys.cpu_cluster.cpus0.executeFuncUnits.funcUnits4.opClasses.opClasses20 testsys.cpu_cluster.cpus0.executeFuncUnits.funcUnits4.opClasses.opClasses21 testsys.cpu_cluster.cpus0.executeFuncUnits.funcUnits4.opClasses.opClasses22 testsys.cpu_cluster.cpus0.executeFuncUnits.funcUnits4.opClasses.opClasses23 testsys.cpu_cluster.cpus0.executeFuncUnits.funcUnits4.opClasses.opClasses24 testsys.cpu_cluster.cpus0.executeFuncUnits.funcUnits4.opClasses.opClasses25 testsys.cpu_cluster.cpus0.executeFuncUnits.funcUnits4.opClasses.opClasses26 testsys.cpu_cluster.cpus0.executeFuncUnits.funcUnits4.opClasses.opClasses27 testsys.cpu_cluster.cpus0.executeFuncUnits.funcUnits4.opClasses.opClasses28 testsys.cpu_cluster.cpus0.executeFuncUnits.funcUnits4.opClasses.opClasses29 testsys.cpu_cluster.cpus0.executeFuncUnits.funcUnits4.opClasses.opClasses30 testsys.cpu_cluster.cpus0.executeFuncUnits.funcUnits4.opClasses.opClasses31 testsys.cpu_cluster.cpus0.executeFuncUnits.funcUnits4.opClasses.opClasses32 testsys.cpu_cluster.cpus0.executeFuncUnits.funcUnits4.opClasses.opClasses33 testsys.cpu_cluster.cpus0.executeFuncUnits.funcUnits4.opClasses.opClasses34 testsys.cpu_cluster.cpus0.executeFuncUnits.funcUnits4.opClasses.opClasses35 testsys.cpu_cluster.cpus0.executeFuncUnits.funcUnits4.opClasses.opClasses36 testsys.cpu_cluster.cpus0.executeFuncUnits.funcUnits4.opClasses.opClasses37 testsys.cpu_cluster.cpus0.executeFuncUnits.funcUnits4.opClasses.opClasses38 testsys.cpu_cluster.cpus0.executeFuncUnits.funcUnits4.opClasses.opClasses39 testsys.cpu_cluster.cpus0.executeFuncUnits.funcUnits4.opClasses.opClasses40 testsys.cpu_cluster.cpus0.executeFuncUnits.funcUnits4.opClasses.opClasses41

[testsys.cpu_cluster.cpus0.executeFuncUnits.funcUnits4.opClasses.opClasses00]
type=MinorOpClass
eventq_index=0
opClass=FloatAdd

[testsys.cpu_cluster.cpus0.executeFuncUnits.funcUnits4.opClasses.opClasses01]
type=MinorOpClass
eventq_index=0
opClass=FloatCmp

[testsys.cpu_cluster.cpus0.executeFuncUnits.funcUnits4.opClasses.opClasses02]
type=MinorOpClass
eventq_index=0
opClass=FloatCvt

[testsys.cpu_cluster.cpus0.executeFuncUnits.funcUnits4.opClasses.opClasses03]
type=MinorOpClass
eventq_index=0
opClass=FloatMisc

[testsys.cpu_cluster.cpus0.executeFuncUnits.funcUnits4.opClasses.opClasses04]
type=MinorOpClass
eventq_index=0
opClass=FloatMult

[testsys.cpu_cluster.cpus0.executeFuncUnits.funcUnits4.opClasses.opClasses05]
type=MinorOpClass
eventq_index=0
opClass=FloatMultAcc

[testsys.cpu_cluster.cpus0.executeFuncUnits.funcUnits4.opClasses.opClasses06]
type=MinorOpClass
eventq_index=0
opClass=FloatDiv

[testsys.cpu_cluster.cpus0.executeFuncUnits.funcUnits4.opClasses.opClasses07]
type=MinorOpClass
eventq_index=0
opClass=FloatSqrt

[testsys.cpu_cluster.cpus0.executeFuncUnits.funcUnits4.opClasses.opClasses08]
type=MinorOpClass
eventq_index=0
opClass=SimdAdd

[testsys.cpu_cluster.cpus0.executeFuncUnits.funcUnits4.opClasses.opClasses09]
type=MinorOpClass
eventq_index=0
opClass=SimdAddAcc

[testsys.cpu_cluster.cpus0.executeFuncUnits.funcUnits4.opClasses.opClasses10]
type=MinorOpClass
eventq_index=0
opClass=SimdAlu

[testsys.cpu_cluster.cpus0.executeFuncUnits.funcUnits4.opClasses.opClasses11]
type=MinorOpClass
eventq_index=0
opClass=SimdCmp

[testsys.cpu_cluster.cpus0.executeFuncUnits.funcUnits4.opClasses.opClasses12]
type=MinorOpClass
eventq_index=0
opClass=SimdCvt

[testsys.cpu_cluster.cpus0.executeFuncUnits.funcUnits4.opClasses.opClasses13]
type=MinorOpClass
eventq_index=0
opClass=SimdMisc

[testsys.cpu_cluster.cpus0.executeFuncUnits.funcUnits4.opClasses.opClasses14]
type=MinorOpClass
eventq_index=0
opClass=SimdMult

[testsys.cpu_cluster.cpus0.executeFuncUnits.funcUnits4.opClasses.opClasses15]
type=MinorOpClass
eventq_index=0
opClass=SimdMultAcc

[testsys.cpu_cluster.cpus0.executeFuncUnits.funcUnits4.opClasses.opClasses16]
type=MinorOpClass
eventq_index=0
opClass=SimdShift

[testsys.cpu_cluster.cpus0.executeFuncUnits.funcUnits4.opClasses.opClasses17]
type=MinorOpClass
eventq_index=0
opClass=SimdShiftAcc

[testsys.cpu_cluster.cpus0.executeFuncUnits.funcUnits4.opClasses.opClasses18]
type=MinorOpClass
eventq_index=0
opClass=SimdDiv

[testsys.cpu_cluster.cpus0.executeFuncUnits.funcUnits4.opClasses.opClasses19]
type=MinorOpClass
eventq_index=0
opClass=SimdSqrt

[testsys.cpu_cluster.cpus0.executeFuncUnits.funcUnits4.opClasses.opClasses20]
type=MinorOpClass
eventq_index=0
opClass=SimdFloatAdd

[testsys.cpu_cluster.cpus0.executeFuncUnits.funcUnits4.opClasses.opClasses21]
type=MinorOpClass
eventq_index=0
opClass=SimdFloatAlu

[testsys.cpu_cluster.cpus0.executeFuncUnits.funcUnits4.opClasses.opClasses22]
type=MinorOpClass
eventq_index=0
opClass=SimdFloatCmp

[testsys.cpu_cluster.cpus0.executeFuncUnits.funcUnits4.opClasses.opClasses23]
type=MinorOpClass
eventq_index=0
opClass=SimdFloatCvt

[testsys.cpu_cluster.cpus0.executeFuncUnits.funcUnits4.opClasses.opClasses24]
type=MinorOpClass
eventq_index=0
opClass=SimdFloatDiv

[testsys.cpu_cluster.cpus0.executeFuncUnits.funcUnits4.opClasses.opClasses25]
type=MinorOpClass
eventq_index=0
opClass=SimdFloatMisc

[testsys.cpu_cluster.cpus0.executeFuncUnits.funcUnits4.opClasses.opClasses26]
type=MinorOpClass
eventq_index=0
opClass=SimdFloatMult

[testsys.cpu_cluster.cpus0.executeFuncUnits.funcUnits4.opClasses.opClasses27]
type=MinorOpClass
eventq_index=0
opClass=SimdFloatMultAcc

[testsys.cpu_cluster.cpus0.executeFuncUnits.funcUnits4.opClasses.opClasses28]
type=MinorOpClass
eventq_index=0
opClass=SimdFloatSqrt

[testsys.cpu_cluster.cpus0.executeFuncUnits.funcUnits4.opClasses.opClasses29]
type=MinorOpClass
eventq_index=0
opClass=SimdReduceAdd

[testsys.cpu_cluster.cpus0.executeFuncUnits.funcUnits4.opClasses.opClasses30]
type=MinorOpClass
eventq_index=0
opClass=SimdReduceAlu

[testsys.cpu_cluster.cpus0.executeFuncUnits.funcUnits4.opClasses.opClasses31]
type=MinorOpClass
eventq_index=0
opClass=SimdReduceCmp

[testsys.cpu_cluster.cpus0.executeFuncUnits.funcUnits4.opClasses.opClasses32]
type=MinorOpClass
eventq_index=0
opClass=SimdFloatReduceAdd

[testsys.cpu_cluster.cpus0.executeFuncUnits.funcUnits4.opClasses.opClasses33]
type=MinorOpClass
eventq_index=0
opClass=SimdFloatReduceCmp

[testsys.cpu_cluster.cpus0.executeFuncUnits.funcUnits4.opClasses.opClasses34]
type=MinorOpClass
eventq_index=0
opClass=SimdAes

[testsys.cpu_cluster.cpus0.executeFuncUnits.funcUnits4.opClasses.opClasses35]
type=MinorOpClass
eventq_index=0
opClass=SimdAesMix

[testsys.cpu_cluster.cpus0.executeFuncUnits.funcUnits4.opClasses.opClasses36]
type=MinorOpClass
eventq_index=0
opClass=SimdSha1Hash

[testsys.cpu_cluster.cpus0.executeFuncUnits.funcUnits4.opClasses.opClasses37]
type=MinorOpClass
eventq_index=0
opClass=SimdSha1Hash2

[testsys.cpu_cluster.cpus0.executeFuncUnits.funcUnits4.opClasses.opClasses38]
type=MinorOpClass
eventq_index=0
opClass=SimdSha256Hash

[testsys.cpu_cluster.cpus0.executeFuncUnits.funcUnits4.opClasses.opClasses39]
type=MinorOpClass
eventq_index=0
opClass=SimdSha256Hash2

[testsys.cpu_cluster.cpus0.executeFuncUnits.funcUnits4.opClasses.opClasses40]
type=MinorOpClass
eventq_index=0
opClass=SimdShaSigma2

[testsys.cpu_cluster.cpus0.executeFuncUnits.funcUnits4.opClasses.opClasses41]
type=MinorOpClass
eventq_index=0
opClass=SimdShaSigma3

[testsys.cpu_cluster.cpus0.executeFuncUnits.funcUnits4.timings]
type=MinorFUTiming
children=opClasses
description=FloatSimd
eventq_index=0
extraAssumedLat=0
extraCommitLat=0
extraCommitLatExpr=Null
mask=0
match=0
opClasses=testsys.cpu_cluster.cpus0.executeFuncUnits.funcUnits4.timings.opClasses
srcRegsRelativeLats=2
suppress=false

[testsys.cpu_cluster.cpus0.executeFuncUnits.funcUnits4.timings.opClasses]
type=MinorOpClassSet
eventq_index=0
opClasses=

[testsys.cpu_cluster.cpus0.executeFuncUnits.funcUnits5]
type=MinorFU
children=opClasses timings
cantForwardFromFUIndices=
eventq_index=0
issueLat=1
opClasses=testsys.cpu_cluster.cpus0.executeFuncUnits.funcUnits5.opClasses
opLat=3
timings=testsys.cpu_cluster.cpus0.executeFuncUnits.funcUnits5.timings

[testsys.cpu_cluster.cpus0.executeFuncUnits.funcUnits5.opClasses]
type=MinorOpClassSet
children=opClasses
eventq_index=0
opClasses=testsys.cpu_cluster.cpus0.executeFuncUnits.funcUnits5.opClasses.opClasses

[testsys.cpu_cluster.cpus0.executeFuncUnits.funcUnits5.opClasses.opClasses]
type=MinorOpClass
eventq_index=0
opClass=SimdPredAlu

[testsys.cpu_cluster.cpus0.executeFuncUnits.funcUnits5.timings]
type=MinorFUTiming
children=opClasses
description=Pred
eventq_index=0
extraAssumedLat=0
extraCommitLat=0
extraCommitLatExpr=Null
mask=0
match=0
opClasses=testsys.cpu_cluster.cpus0.executeFuncUnits.funcUnits5.timings.opClasses
srcRegsRelativeLats=2
suppress=false

[testsys.cpu_cluster.cpus0.executeFuncUnits.funcUnits5.timings.opClasses]
type=MinorOpClassSet
eventq_index=0
opClasses=

[testsys.cpu_cluster.cpus0.executeFuncUnits.funcUnits6]
type=MinorFU
children=opClasses timings
cantForwardFromFUIndices=
eventq_index=0
issueLat=1
opClasses=testsys.cpu_cluster.cpus0.executeFuncUnits.funcUnits6.opClasses
opLat=1
timings=testsys.cpu_cluster.cpus0.executeFuncUnits.funcUnits6.timings

[testsys.cpu_cluster.cpus0.executeFuncUnits.funcUnits6.opClasses]
type=MinorOpClassSet
children=opClasses0 opClasses1 opClasses2 opClasses3
eventq_index=0
opClasses=testsys.cpu_cluster.cpus0.executeFuncUnits.funcUnits6.opClasses.opClasses0 testsys.cpu_cluster.cpus0.executeFuncUnits.funcUnits6.opClasses.opClasses1 testsys.cpu_cluster.cpus0.executeFuncUnits.funcUnits6.opClasses.opClasses2 testsys.cpu_cluster.cpus0.executeFuncUnits.funcUnits6.opClasses.opClasses3

[testsys.cpu_cluster.cpus0.executeFuncUnits.funcUnits6.opClasses.opClasses0]
type=MinorOpClass
eventq_index=0
opClass=MemRead

[testsys.cpu_cluster.cpus0.executeFuncUnits.funcUnits6.opClasses.opClasses1]
type=MinorOpClass
eventq_index=0
opClass=MemWrite

[testsys.cpu_cluster.cpus0.executeFuncUnits.funcUnits6.opClasses.opClasses2]
type=MinorOpClass
eventq_index=0
opClass=FloatMemRead

[testsys.cpu_cluster.cpus0.executeFuncUnits.funcUnits6.opClasses.opClasses3]
type=MinorOpClass
eventq_index=0
opClass=FloatMemWrite

[testsys.cpu_cluster.cpus0.executeFuncUnits.funcUnits6.timings]
type=MinorFUTiming
children=opClasses
description=Mem
eventq_index=0
extraAssumedLat=2
extraCommitLat=0
extraCommitLatExpr=Null
mask=0
match=0
opClasses=testsys.cpu_cluster.cpus0.executeFuncUnits.funcUnits6.timings.opClasses
srcRegsRelativeLats=1
suppress=false

[testsys.cpu_cluster.cpus0.executeFuncUnits.funcUnits6.timings.opClasses]
type=MinorOpClassSet
eventq_index=0
opClasses=

[testsys.cpu_cluster.cpus0.executeFuncUnits.funcUnits7]
type=MinorFU
children=opClasses
cantForwardFromFUIndices=
eventq_index=0
issueLat=1
opClasses=testsys.cpu_cluster.cpus0.executeFuncUnits.funcUnits7.opClasses
opLat=1
timings=

[testsys.cpu_cluster.cpus0.executeFuncUnits.funcUnits7.opClasses]
type=MinorOpClassSet
children=opClasses0 opClasses1
eventq_index=0
opClasses=testsys.cpu_cluster.cpus0.executeFuncUnits.funcUnits7.opClasses.opClasses0 testsys.cpu_cluster.cpus0.executeFuncUnits.funcUnits7.opClasses.opClasses1

[testsys.cpu_cluster.cpus0.executeFuncUnits.funcUnits7.opClasses.opClasses0]
type=MinorOpClass
eventq_index=0
opClass=IprAccess

[testsys.cpu_cluster.cpus0.executeFuncUnits.funcUnits7.opClasses.opClasses1]
type=MinorOpClass
eventq_index=0
opClass=InstPrefetch

[testsys.cpu_cluster.cpus0.icache]
type=Cache
children=power_state replacement_policy tags
addr_ranges=0:18446744073709551615
assoc=3
clk_domain=testsys.cpu_cluster.clk_domain
clusivity=mostly_incl
compressor=Null
data_latency=1
demand_mshr_reserve=1
eventq_index=0
is_read_only=true
max_miss_count=0
move_contractions=true
mshrs=4
power_model=
power_state=testsys.cpu_cluster.cpus0.icache.power_state
prefetch_on_access=false
prefetch_on_pf_hit=false
prefetcher=Null
replace_expansions=true
replacement_policy=testsys.cpu_cluster.cpus0.icache.replacement_policy
response_latency=1
sequential_access=false
size=49152
system=testsys
tag_latency=1
tags=testsys.cpu_cluster.cpus0.icache.tags
tgts_per_mshr=8
warmup_percentage=0
write_allocator=Null
write_buffers=8
writeback_clean=true
cpu_side=testsys.cpu_cluster.cpus0.icache_port
mem_side=testsys.cpu_cluster.toL2Bus.cpu_side_ports[0]

[testsys.cpu_cluster.cpus0.icache.power_state]
type=PowerState
clk_gate_bins=20
clk_gate_max=1000000000000
clk_gate_min=1000
default_state=UNDEFINED
eventq_index=0
leaders=
possible_states=

[testsys.cpu_cluster.cpus0.icache.replacement_policy]
type=LRURP
eventq_index=0

[testsys.cpu_cluster.cpus0.icache.tags]
type=BaseSetAssoc
children=indexing_policy power_state
assoc=3
block_size=64
clk_domain=testsys.cpu_cluster.clk_domain
entry_size=64
eventq_index=0
indexing_policy=testsys.cpu_cluster.cpus0.icache.tags.indexing_policy
power_model=
power_state=testsys.cpu_cluster.cpus0.icache.tags.power_state
replacement_policy=testsys.cpu_cluster.cpus0.icache.replacement_policy
sequential_access=false
size=49152
system=testsys
tag_latency=1
warmup_percentage=0

[testsys.cpu_cluster.cpus0.icache.tags.indexing_policy]
type=SetAssociative
assoc=3
entry_size=64
eventq_index=0
size=49152

[testsys.cpu_cluster.cpus0.icache.tags.power_state]
type=PowerState
clk_gate_bins=20
clk_gate_max=1000000000000
clk_gate_min=1000
default_state=UNDEFINED
eventq_index=0
leaders=
possible_states=

[testsys.cpu_cluster.cpus0.interrupts]
type=ArmInterrupts
eventq_index=0

[testsys.cpu_cluster.cpus0.isa]
type=ArmISA
decoderFlavor=Generic
eventq_index=0
fpsid=1090793632
id_aa64afr0_el1=0
id_aa64afr1_el1=0
id_aa64dfr0_el1=15790086
id_aa64dfr1_el1=0
id_aa64isar0_el1=268435456
id_aa64isar1_el1=16846864
id_aa64mmfr0_el1=15728642
id_aa64mmfr1_el1=1052704
id_aa64mmfr2_el1=65536
id_isar0=34607377
id_isar1=34677009
id_isar2=555950401
id_isar3=17899825
id_isar4=268501314
id_isar5=285212672
id_isar6=1
id_mmfr0=270536963
id_mmfr1=0
id_mmfr2=19070976
id_mmfr3=34611729
id_mmfr4=0
impdef_nop=false
midr=0
pmu=Null
sve_vl_se=1
system=testsys

[testsys.cpu_cluster.cpus0.itb_walker_cache]
type=Cache
children=power_state replacement_policy tags
addr_ranges=0:18446744073709551615
assoc=8
clk_domain=testsys.cpu_cluster.clk_domain
clusivity=mostly_incl
compressor=Null
data_latency=4
demand_mshr_reserve=1
eventq_index=0
is_read_only=true
max_miss_count=0
move_contractions=true
mshrs=6
power_model=
power_state=testsys.cpu_cluster.cpus0.itb_walker_cache.power_state
prefetch_on_access=false
prefetch_on_pf_hit=false
prefetcher=Null
replace_expansions=true
replacement_policy=testsys.cpu_cluster.cpus0.itb_walker_cache.replacement_policy
response_latency=4
sequential_access=false
size=1024
system=testsys
tag_latency=4