[root]
type=Root
children=system
eventq_index=0
full_system=true
sim_quantum=1000000000
time_sync_enable=false
time_sync_period=100000000000
time_sync_spin_threshold=100000000

[system]
type=System
children=apicbridge bridge cache_hierarchy clk_domain dvfs_handler iobus memory pc processor workload
auto_unlink_shared_backstore=false
cache_line_size=64
eventq_index=0
exit_on_work_items=true
init_param=0
m5ops_base=4294901760
mem_mode=atomic
mem_ranges=0:3221225472 3221225472:3222274048
memories=system.memory.mem_ctrl0.dram system.memory.mem_ctrl1.dram
mmap_using_noreserve=false
multi_thread=false
num_work_ids=16
readfile=fs_o3_res/streamcluster_simsmall/readfile
redirect_paths=
shadow_rom_ranges=
shared_backstore=
symbolfile=
thermal_components=
thermal_model=Null
work_begin_ckpt_count=0
work_begin_cpu_id_exit=-1
work_begin_exit_count=0
work_cpus_ckpt_count=0
work_end_ckpt_count=0
work_end_exit_count=0
work_item_id=-1
workload=system.workload
system_port=system.cache_hierarchy.membus.cpu_side_ports[1]

[system.apicbridge]
type=Bridge
children=power_state
clk_domain=system.clk_domain
delay=50000
eventq_index=0
power_model=
power_state=system.apicbridge.power_state
ranges=11529215046068469760:11529215046068477951
req_size=16
resp_size=16
cpu_side_port=system.iobus.mem_side_ports[0]
mem_side_port=system.cache_hierarchy.membus.cpu_side_ports[0]

[system.apicbridge.power_state]
type=PowerState
clk_gate_bins=20
clk_gate_max=1000000000000
clk_gate_min=1000
default_state=UNDEFINED
eventq_index=0
leaders=
possible_states=

[system.bridge]
type=Bridge
children=power_state
clk_domain=system.clk_domain
delay=50000
eventq_index=0
power_model=
power_state=system.bridge.power_state
ranges=3221225472:4294901760 9223372036854775808:11529215046068469759 13835058055282163712:18446744073709551615
req_size=16
resp_size=16
cpu_side_port=system.cache_hierarchy.membus.mem_side_ports[0]
mem_side_port=system.iobus.cpu_side_ports[0]

[system.bridge.power_state]
type=PowerState
clk_gate_bins=20
clk_gate_max=1000000000000
clk_gate_min=1000
default_state=UNDEFINED
eventq_index=0
leaders=
possible_states=

[system.cache_hierarchy]
type=SubSystem
children=dptw_caches0 dptw_caches1 iocache iptw_caches0 iptw_caches1 l1dcaches0 l1dcaches1 l1icaches0 l1icaches1 l2buses0 l2buses1 l2caches0 l2caches1 membus
eventq_index=0
thermal_domain=Null

[system.cache_hierarchy.dptw_caches0]
type=Cache
children=power_state replacement_policy tags
addr_ranges=0:18446744073709551615
assoc=4
clk_domain=system.clk_domain
clusivity=mostly_incl
compressor=Null
data_latency=1
demand_mshr_reserve=1
eventq_index=0
is_read_only=false
max_miss_count=0
move_contractions=true
mshrs=20
power_model=
power_state=system.cache_hierarchy.dptw_caches0.power_state
prefetch_on_access=false
prefetch_on_pf_hit=false
prefetcher=Null
replace_expansions=true
replacement_policy=system.cache_hierarchy.dptw_caches0.replacement_policy
response_latency=1
sequential_access=false
size=8192
system=system
tag_latency=1
tags=system.cache_hierarchy.dptw_caches0.tags
tgts_per_mshr=12
warmup_percentage=0
write_allocator=Null
write_buffers=8
writeback_clean=true
cpu_side=system.processor.cores0.core.mmu.dtb.walker.port
mem_side=system.cache_hierarchy.l2buses0.cpu_side_ports[3]

[system.cache_hierarchy.dptw_caches0.power_state]
type=PowerState
clk_gate_bins=20
clk_gate_max=1000000000000
clk_gate_min=1000
default_state=UNDEFINED
eventq_index=0
leaders=
possible_states=

[system.cache_hierarchy.dptw_caches0.replacement_policy]
type=LRURP
eventq_index=0

[system.cache_hierarchy.dptw_caches0.tags]
type=BaseSetAssoc
children=indexing_policy power_state
assoc=4
block_size=64
clk_domain=system.clk_domain
entry_size=64
eventq_index=0
indexing_policy=system.cache_hierarchy.dptw_caches0.tags.indexing_policy
power_model=
power_state=system.cache_hierarchy.dptw_caches0.tags.power_state
replacement_policy=system.cache_hierarchy.dptw_caches0.replacement_policy
sequential_access=false
size=8192
system=system
tag_latency=1
warmup_percentage=0

[system.cache_hierarchy.dptw_caches0.tags.indexing_policy]
type=SetAssociative
assoc=4
entry_size=64
eventq_index=0
size=8192

[system.cache_hierarchy.dptw_caches0.tags.power_state]
type=PowerState
clk_gate_bins=20
clk_gate_max=1000000000000
clk_gate_min=1000
default_state=UNDEFINED
eventq_index=0
leaders=
possible_states=

[system.cache_hierarchy.dptw_caches1]
type=Cache
children=power_state replacement_policy tags
addr_ranges=0:18446744073709551615
assoc=4
clk_domain=system.clk_domain
clusivity=mostly_incl
compressor=Null
data_latency=1
demand_mshr_reserve=1
eventq_index=0
is_read_only=false
max_miss_count=0
move_contractions=true
mshrs=20
power_model=
power_state=system.cache_hierarchy.dptw_caches1.power_state
prefetch_on_access=false
prefetch_on_pf_hit=false
prefetcher=Null
replace_expansions=true
replacement_policy=system.cache_hierarchy.dptw_caches1.replacement_policy
response_latency=1
sequential_access=false
size=8192
system=system
tag_latency=1
tags=system.cache_hierarchy.dptw_caches1.tags
tgts_per_mshr=12
warmup_percentage=0
write_allocator=Null
write_buffers=8
writeback_clean=true
cpu_side=system.processor.cores1.core.mmu.dtb.walker.port
mem_side=system.cache_hierarchy.l2buses1.cpu_side_ports[3]

[system.cache_hierarchy.dptw_caches1.power_state]
type=PowerState
clk_gate_bins=20
clk_gate_max=1000000000000
clk_gate_min=1000
default_state=UNDEFINED
eventq_index=0
leaders=
possible_states=

[system.cache_hierarchy.dptw_caches1.replacement_policy]
type=LRURP
eventq_index=0

[system.cache_hierarchy.dptw_caches1.tags]
type=BaseSetAssoc
children=indexing_policy power_state
assoc=4
block_size=64
clk_domain=system.clk_domain
entry_size=64
eventq_index=0
indexing_policy=system.cache_hierarchy.dptw_caches1.tags.indexing_policy
power_model=
power_state=system.cache_hierarchy.dptw_caches1.tags.power_state
replacement_policy=system.cache_hierarchy.dptw_caches1.replacement_policy
sequential_access=false
size=8192
system=system
tag_latency=1
warmup_percentage=0

[system.cache_hierarchy.dptw_caches1.tags.indexing_policy]
type=SetAssociative
assoc=4
entry_size=64
eventq_index=0
size=8192

[system.cache_hierarchy.dptw_caches1.tags.power_state]
type=PowerState
clk_gate_bins=20
clk_gate_max=1000000000000
clk_gate_min=1000
default_state=UNDEFINED
eventq_index=0
leaders=
possible_states=

[system.cache_hierarchy.iocache]
type=Cache
children=power_state replacement_policy tags
addr_ranges=0:3221225472 3221225472:3222274048
assoc=8
clk_domain=system.clk_domain
clusivity=mostly_incl
compressor=Null
data_latency=50
demand_mshr_reserve=1
eventq_index=0
is_read_only=false
max_miss_count=0
move_contractions=true
mshrs=20
power_model=
power_state=system.cache_hierarchy.iocache.power_state
prefetch_on_access=false
prefetch_on_pf_hit=false
prefetcher=Null
replace_expansions=true
replacement_policy=system.cache_hierarchy.iocache.replacement_policy
response_latency=50
sequential_access=false
size=1024
system=system
tag_latency=50
tags=system.cache_hierarchy.iocache.tags
tgts_per_mshr=12
warmup_percentage=0
write_allocator=Null
write_buffers=8
writeback_clean=false
cpu_side=system.iobus.mem_side_ports[16]
mem_side=system.cache_hierarchy.membus.cpu_side_ports[2]

[system.cache_hierarchy.iocache.power_state]
type=PowerState
clk_gate_bins=20
clk_gate_max=1000000000000
clk_gate_min=1000
default_state=UNDEFINED
eventq_index=0
leaders=
possible_states=

[system.cache_hierarchy.iocache.replacement_policy]
type=LRURP
eventq_index=0

[system.cache_hierarchy.iocache.tags]
type=BaseSetAssoc
children=indexing_policy power_state
assoc=8
block_size=64
clk_domain=system.clk_domain
entry_size=64
eventq_index=0
indexing_policy=system.cache_hierarchy.iocache.tags.indexing_policy
power_model=
power_state=system.cache_hierarchy.iocache.tags.power_state
replacement_policy=system.cache_hierarchy.iocache.replacement_policy
sequential_access=false
size=1024
system=system
tag_latency=50
warmup_percentage=0

[system.cache_hierarchy.iocache.tags.indexing_policy]
type=SetAssociative
assoc=8
entry_size=64
eventq_index=0
size=1024

[system.cache_hierarchy.iocache.tags.power_state]
type=PowerState
clk_gate_bins=20
clk_gate_max=1000000000000
clk_gate_min=1000
default_state=UNDEFINED
eventq_index=0
leaders=
possible_states=

[system.cache_hierarchy.iptw_caches0]
type=Cache
children=power_state replacement_policy tags
addr_ranges=0:18446744073709551615
assoc=4
clk_domain=system.clk_domain
clusivity=mostly_incl
compressor=Null
data_latency=1
demand_mshr_reserve=1
eventq_index=0
is_read_only=false
max_miss_count=0
move_contractions=true
mshrs=20
power_model=
power_state=system.cache_hierarchy.iptw_caches0.power_state
prefetch_on_access=false
prefetch_on_pf_hit=false
prefetcher=Null
replace_expansions=true
replacement_policy=system.cache_hierarchy.iptw_caches0.replacement_policy
response_latency=1
sequential_access=false
size=8192
system=system
tag_latency=1
tags=system.cache_hierarchy.iptw_caches0.tags
tgts_per_mshr=12
warmup_percentage=0
write_allocator=Null
write_buffers=8
writeback_clean=true
cpu_side=system.processor.cores0.core.mmu.itb.walker.port
mem_side=system.cache_hierarchy.l2buses0.cpu_side_ports[2]

[system.cache_hierarchy.iptw_caches0.power_state]
type=PowerState
clk_gate_bins=20
clk_gate_max=1000000000000
clk_gate_min=1000
default_state=UNDEFINED
eventq_index=0
leaders=
possible_states=

[system.cache_hierarchy.iptw_caches0.replacement_policy]
type=LRURP
eventq_index=0

[system.cache_hierarchy.iptw_caches0.tags]
type=BaseSetAssoc
children=indexing_policy power_state
assoc=4
block_size=64
clk_domain=system.clk_domain
entry_size=64
eventq_index=0
indexing_policy=system.cache_hierarchy.iptw_caches0.tags.indexing_policy
power_model=
power_state=system.cache_hierarchy.iptw_caches0.tags.power_state
replacement_policy=system.cache_hierarchy.iptw_caches0.replacement_policy
sequential_access=false
size=8192
system=system
tag_latency=1
warmup_percentage=0

[system.cache_hierarchy.iptw_caches0.tags.indexing_policy]
type=SetAssociative
assoc=4
entry_size=64
eventq_index=0
size=8192

[system.cache_hierarchy.iptw_caches0.tags.power_state]
type=PowerState
clk_gate_bins=20
clk_gate_max=1000000000000
clk_gate_min=1000
default_state=UNDEFINED
eventq_index=0
leaders=
possible_states=

[system.cache_hierarchy.iptw_caches1]
type=Cache
children=power_state replacement_policy tags
addr_ranges=0:18446744073709551615
assoc=4
clk_domain=system.clk_domain
clusivity=mostly_incl
compressor=Null
data_latency=1
demand_mshr_reserve=1
eventq_index=0
is_read_only=false
max_miss_count=0
move_contractions=true
mshrs=20
power_model=
power_state=system.cache_hierarchy.iptw_caches1.power_state
prefetch_on_access=false
prefetch_on_pf_hit=false
prefetcher=Null
replace_expansions=true
replacement_policy=system.cache_hierarchy.iptw_caches1.replacement_policy
response_latency=1
sequential_access=false
size=8192
system=system
tag_latency=1
tags=system.cache_hierarchy.iptw_caches1.tags
tgts_per_mshr=12
warmup_percentage=0
write_allocator=Null
write_buffers=8
writeback_clean=true
cpu_side=system.processor.cores1.core.mmu.itb.walker.port
mem_side=system.cache_hierarchy.l2buses1.cpu_side_ports[2]

[system.cache_hierarchy.iptw_caches1.power_state]
type=PowerState
clk_gate_bins=20
clk_gate_max=1000000000000
clk_gate_min=1000
default_state=UNDEFINED
eventq_index=0
leaders=
possible_states=

[system.cache_hierarchy.iptw_caches1.replacement_policy]
type=LRURP
eventq_index=0

[system.cache_hierarchy.iptw_caches1.tags]
type=BaseSetAssoc
children=indexing_policy power_state
assoc=4
block_size=64
clk_domain=system.clk_domain
entry_size=64
eventq_index=0
indexing_policy=system.cache_hierarchy.iptw_caches1.tags.indexing_policy
power_model=
power_state=system.cache_hierarchy.iptw_caches1.tags.power_state
replacement_policy=system.cache_hierarchy.iptw_caches1.replacement_policy
sequential_access=false
size=8192
system=system
tag_latency=1
warmup_percentage=0

[system.cache_hierarchy.iptw_caches1.tags.indexing_policy]
type=SetAssociative
assoc=4
entry_size=64
eventq_index=0
size=8192

[system.cache_hierarchy.iptw_caches1.tags.power_state]
type=PowerState
clk_gate_bins=20
clk_gate_max=1000000000000
clk_gate_min=1000
default_state=UNDEFINED
eventq_index=0
leaders=
possible_states=

[system.cache_hierarchy.l1dcaches0]
type=Cache
children=power_state prefetcher replacement_policy tags
addr_ranges=0:18446744073709551615
assoc=8
clk_domain=system.clk_domain
clusivity=mostly_incl
compressor=Null
data_latency=1
demand_mshr_reserve=1
eventq_index=0
is_read_only=false
max_miss_count=0
move_contractions=true
mshrs=16
power_model=
power_state=system.cache_hierarchy.l1dcaches0.power_state
prefetch_on_access=false
prefetch_on_pf_hit=false
prefetcher=system.cache_hierarchy.l1dcaches0.prefetcher
replace_expansions=true
replacement_policy=system.cache_hierarchy.l1dcaches0.replacement_policy
response_latency=1
sequential_access=false
size=32768
system=system
tag_latency=1
tags=system.cache_hierarchy.l1dcaches0.tags
tgts_per_mshr=20
warmup_percentage=0
write_allocator=Null
write_buffers=8
writeback_clean=true
cpu_side=system.processor.cores0.core.dcache_port
mem_side=system.cache_hierarchy.l2buses0.cpu_side_ports[1]

[system.cache_hierarchy.l1dcaches0.power_state]
type=PowerState
clk_gate_bins=20
clk_gate_max=1000000000000
clk_gate_min=1000
default_state=UNDEFINED
eventq_index=0
leaders=
possible_states=

[system.cache_hierarchy.l1dcaches0.prefetcher]
type=StridePrefetcher
children=power_state table_indexing_policy table_replacement_policy
block_size=64
cache_snoop=false
clk_domain=system.clk_domain
confidence_counter_bits=3
confidence_threshold=50
degree=4
eventq_index=0
initial_confidence=4
latency=1
max_prefetch_requests_with_pending_translation=32
on_data=true
on_inst=false
on_miss=false
on_read=true
on_write=true
page_bytes=4096
power_model=
power_state=system.cache_hierarchy.l1dcaches0.prefetcher.power_state
prefetch_on_access=false
prefetch_on_pf_hit=false
queue_filter=true
queue_size=32
queue_squash=true
sys=system
table_assoc=4
table_entries=64
table_indexing_policy=system.cache_hierarchy.l1dcaches0.prefetcher.table_indexing_policy
table_replacement_policy=system.cache_hierarchy.l1dcaches0.prefetcher.table_replacement_policy
tag_prefetch=true
throttle_control_percentage=0
use_requestor_id=true
use_virtual_addresses=false

[system.cache_hierarchy.l1dcaches0.prefetcher.power_state]
type=PowerState
clk_gate_bins=20
clk_gate_max=1000000000000
clk_gate_min=1000
default_state=UNDEFINED
eventq_index=0
leaders=
possible_states=

[system.cache_hierarchy.l1dcaches0.prefetcher.table_indexing_policy]
type=StridePrefetcherHashedSetAssociative
assoc=4
entry_size=1
eventq_index=0
size=64

[system.cache_hierarchy.l1dcaches0.prefetcher.table_replacement_policy]
type=RandomRP
eventq_index=0

[system.cache_hierarchy.l1dcaches0.replacement_policy]
type=LRURP
eventq_index=0

[system.cache_hierarchy.l1dcaches0.tags]
type=BaseSetAssoc
children=indexing_policy power_state
assoc=8
block_size=64
clk_domain=system.clk_domain
entry_size=64
eventq_index=0
indexing_policy=system.cache_hierarchy.l1dcaches0.tags.indexing_policy
power_model=
power_state=system.cache_hierarchy.l1dcaches0.tags.power_state
replacement_policy=system.cache_hierarchy.l1dcaches0.replacement_policy
sequential_access=false
size=32768
system=system
tag_latency=1
warmup_percentage=0

[system.cache_hierarchy.l1dcaches0.tags.indexing_policy]
type=SetAssociative
assoc=8
entry_size=64
eventq_index=0
size=32768

[system.cache_hierarchy.l1dcaches0.tags.power_state]
type=PowerState
clk_gate_bins=20
clk_gate_max=1000000000000
clk_gate_min=1000
default_state=UNDEFINED
eventq_index=0
leaders=
possible_states=

[system.cache_hierarchy.l1dcaches1]
type=Cache
children=power_state prefetcher replacement_policy tags
addr_ranges=0:18446744073709551615
assoc=8
clk_domain=system.clk_domain
clusivity=mostly_incl
compressor=Null
data_latency=1
demand_mshr_reserve=1
eventq_index=0
is_read_only=false
max_miss_count=0
move_contractions=true
mshrs=16
power_model=
power_state=system.cache_hierarchy.l1dcaches1.power_state
prefetch_on_access=false
prefetch_on_pf_hit=false
prefetcher=system.cache_hierarchy.l1dcaches1.prefetcher
replace_expansions=true
replacement_policy=system.cache_hierarchy.l1dcaches1.replacement_policy
response_latency=1
sequential_access=false
size=32768
system=system
tag_latency=1
tags=system.cache_hierarchy.l1dcaches1.tags
tgts_per_mshr=20
warmup_percentage=0
write_allocator=Null
write_buffers=8
writeback_clean=true
cpu_side=system.processor.cores1.core.dcache_port
mem_side=system.cache_hierarchy.l2buses1.cpu_side_ports[1]

[system.cache_hierarchy.l1dcaches1.power_state]
type=PowerState
clk_gate_bins=20
clk_gate_max=1000000000000
clk_gate_min=1000
default_state=UNDEFINED
eventq_index=0
leaders=
possible_states=

[system.cache_hierarchy.l1dcaches1.prefetcher]
type=StridePrefetcher
children=power_state table_indexing_policy table_replacement_policy
block_size=64
cache_snoop=false
clk_domain=system.clk_domain
confidence_counter_bits=3
confidence_threshold=50
degree=4
eventq_index=0
initial_confidence=4
latency=1
max_prefetch_requests_with_pending_translation=32
on_data=true
on_inst=false
on_miss=false
on_read=true
on_write=true
page_bytes=4096
power_model=
power_state=system.cache_hierarchy.l1dcaches1.prefetcher.power_state
prefetch_on_access=false
prefetch_on_pf_hit=false
queue_filter=true
queue_size=32
queue_squash=true
sys=system
table_assoc=4
table_entries=64
table_indexing_policy=system.cache_hierarchy.l1dcaches1.prefetcher.table_indexing_policy
table_replacement_policy=system.cache_hierarchy.l1dcaches1.prefetcher.table_replacement_policy
tag_prefetch=true
throttle_control_percentage=0
use_requestor_id=true
use_virtual_addresses=false

[system.cache_hierarchy.l1dcaches1.prefetcher.power_state]
type=PowerState
clk_gate_bins=20
clk_gate_max=1000000000000
clk_gate_min=1000
default_state=UNDEFINED
eventq_index=0
leaders=
possible_states=

[system.cache_hierarchy.l1dcaches1.prefetcher.table_indexing_policy]
type=StridePrefetcherHashedSetAssociative
assoc=4
entry_size=1
eventq_index=0
size=64

[system.cache_hierarchy.l1dcaches1.prefetcher.table_replacement_policy]
type=RandomRP
eventq_index=0

[system.cache_hierarchy.l1dcaches1.replacement_policy]
type=LRURP
eventq_index=0

[system.cache_hierarchy.l1dcaches1.tags]
type=BaseSetAssoc
children=indexing_policy power_state
assoc=8
block_size=64
clk_domain=system.clk_domain
entry_size=64
eventq_index=0
indexing_policy=system.cache_hierarchy.l1dcaches1.tags.indexing_policy
power_model=
power_state=system.cache_hierarchy.l1dcaches1.tags.power_state
replacement_policy=system.cache_hierarchy.l1dcaches1.replacement_policy
sequential_access=false
size=32768
system=system
tag_latency=1
warmup_percentage=0

[system.cache_hierarchy.l1dcaches1.tags.indexing_policy]
type=SetAssociative
assoc=8
entry_size=64
eventq_index=0
size=32768

[system.cache_hierarchy.l1dcaches1.tags.power_state]
type=PowerState
clk_gate_bins=20
clk_gate_max=1000000000000
clk_gate_min=1000
default_state=UNDEFINED
eventq_index=0
leaders=
possible_states=

[system.cache_hierarchy.l1icaches0]
type=Cache
children=power_state prefetcher replacement_policy tags
addr_ranges=0:18446744073709551615
assoc=8
clk_domain=system.clk_domain
clusivity=mostly_incl
compressor=Null
data_latency=1
demand_mshr_reserve=1
eventq_index=0
is_read_only=false
max_miss_count=0
move_contractions=true
mshrs=16
power_model=
power_state=system.cache_hierarchy.l1icaches0.power_state
prefetch_on_access=false
prefetch_on_pf_hit=false
prefetcher=system.cache_hierarchy.l1icaches0.prefetcher
replace_expansions=true
replacement_policy=system.cache_hierarchy.l1icaches0.replacement_policy
response_latency=1
sequential_access=false
size=32768
system=system
tag_latency=1
tags=system.cache_hierarchy.l1icaches0.tags
tgts_per_mshr=20
warmup_percentage=0
write_allocator=Null
write_buffers=8
writeback_clean=true
cpu_side=system.processor.cores0.core.icache_port
mem_side=system.cache_hierarchy.l2buses0.cpu_side_ports[0]

[system.cache_hierarchy.l1icaches0.power_state]
type=PowerState
clk_gate_bins=20
clk_gate_max=1000000000000
clk_gate_min=1000
default_state=UNDEFINED
eventq_index=0
leaders=
possible_states=

[system.cache_hierarchy.l1icaches0.prefetcher]
type=StridePrefetcher
children=power_state table_indexing_policy table_replacement_policy
block_size=64
cache_snoop=false
clk_domain=system.clk_domain
confidence_counter_bits=3
confidence_threshold=50
degree=4
eventq_index=0
initial_confidence=4
latency=1
max_prefetch_requests_with_pending_translation=32
on_data=true
on_inst=false
on_miss=false
on_read=true
on_write=true
page_bytes=4096
power_model=
power_state=system.cache_hierarchy.l1icaches0.prefetcher.power_state
prefetch_on_access=false
prefetch_on_pf_hit=false
queue_filter=true
queue_size=32
queue_squash=true
sys=system
table_assoc=4
table_entries=64
table_indexing_policy=system.cache_hierarchy.l1icaches0.prefetcher.table_indexing_policy
table_replacement_policy=system.cache_hierarchy.l1icaches0.prefetcher.table_replacement_policy
tag_prefetch=true
throttle_control_percentage=0
use_requestor_id=true
use_virtual_addresses=false

[system.cache_hierarchy.l1icaches0.prefetcher.power_state]
type=PowerState
clk_gate_bins=20
clk_gate_max=1000000000000
clk_gate_min=1000
default_state=UNDEFINED
eventq_index=0
leaders=
possible_states=

[system.cache_hierarchy.l1icaches0.prefetcher.table_indexing_policy]
type=StridePrefetcherHashedSetAssociative
assoc=4
entry_size=1
eventq_index=0
size=64

[system.cache_hierarchy.l1icaches0.prefetcher.table_replacement_policy]
type=RandomRP
eventq_index=0

[system.cache_hierarchy.l1icaches0.replacement_policy]
type=LRURP
eventq_index=0

[system.cache_hierarchy.l1icaches0.tags]
type=BaseSetAssoc
children=indexing_policy power_state
assoc=8
block_size=64
clk_domain=system.clk_domain
entry_size=64
eventq_index=0
indexing_policy=system.cache_hierarchy.l1icaches0.tags.indexing_policy
power_model=
power_state=system.cache_hierarchy.l1icaches0.tags.power_state
replacement_policy=system.cache_hierarchy.l1icaches0.replacement_policy
sequential_access=false
size=32768
system=system
tag_latency=1
warmup_percentage=0

[system.cache_hierarchy.l1icaches0.tags.indexing_policy]
type=SetAssociative
assoc=8
entry_size=64
eventq_index=0
size=32768

[system.cache_hierarchy.l1icaches0.tags.power_state]
type=PowerState
clk_gate_bins=20
clk_gate_max=1000000000000
clk_gate_min=1000
default_state=UNDEFINED
eventq_index=0
leaders=
possible_states=

[system.cache_hierarchy.l1icaches1]
type=Cache
children=power_state prefetcher replacement_policy tags
addr_ranges=0:18446744073709551615
assoc=8
clk_domain=system.clk_domain
clusivity=mostly_incl
compressor=Null
data_latency=1
demand_mshr_reserve=1
eventq_index=0
is_read_only=false
max_miss_count=0
move_contractions=true
mshrs=16
power_model=
power_state=system.cache_hierarchy.l1icaches1.power_state
prefetch_on_access=false
prefetch_on_pf_hit=false
prefetcher=system.cache_hierarchy.l1icaches1.prefetcher
replace_expansions=true
replacement_policy=system.cache_hierarchy.l1icaches1.replacement_policy
response_latency=1
sequential_access=false
size=32768
system=system
tag_latency=1
tags=system.cache_hierarchy.l1icaches1.tags
tgts_per_mshr=20
warmup_percentage=0
write_allocator=Null
write_buffers=8
writeback_clean=true
cpu_side=system.processor.cores1.core.icache_port
mem_side=system.cache_hierarchy.l2buses1.cpu_side_ports[0]

[system.cache_hierarchy.l1icaches1.power_state]
type=PowerState
clk_gate_bins=20
clk_gate_max=1000000000000
clk_gate_min=1000
default_state=UNDEFINED
eventq_index=0
leaders=
possible_states=

[system.cache_hierarchy.l1icaches1.prefetcher]
type=StridePrefetcher
children=power_state table_indexing_policy table_replacement_policy
block_size=64
cache_snoop=false
clk_domain=system.clk_domain
confidence_counter_bits=3
confidence_threshold=50
degree=4
eventq_index=0
initial_confidence=4
latency=1
max_prefetch_requests_with_pending_translation=32
on_data=true
on_inst=false
on_miss=false
on_read=true
on_write=true
page_bytes=4096
power_model=
power_state=system.cache_hierarchy.l1icaches1.prefetcher.power_state
prefetch_on_access=false
prefetch_on_pf_hit=false
queue_filter=true
queue_size=32
queue_squash=true
sys=system
table_assoc=4
table_entries=64
table_indexing_policy=system.cache_hierarchy.l1icaches1.prefetcher.table_indexing_policy
table_replacement_policy=system.cache_hierarchy.l1icaches1.prefetcher.table_replacement_policy
tag_prefetch=true
throttle_control_percentage=0
use_requestor_id=true
use_virtual_addresses=false

[system.cache_hierarchy.l1icaches1.prefetcher.power_state]
type=PowerState
clk_gate_bins=20
clk_gate_max=1000000000000
clk_gate_min=1000
default_state=UNDEFINED
eventq_index=0
leaders=
possible_states=

[system.cache_hierarchy.l1icaches1.prefetcher.table_indexing_policy]
type=StridePrefetcherHashedSetAssociative
assoc=4
entry_size=1
eventq_index=0
size=64

[system.cache_hierarchy.l1icaches1.prefetcher.table_replacement_policy]
type=RandomRP
eventq_index=0

[system.cache_hierarchy.l1icaches1.replacement_policy]
type=LRURP
eventq_index=0

[system.cache_hierarchy.l1icaches1.tags]
type=BaseSetAssoc
children=indexing_policy power_state
assoc=8
block_size=64
clk_domain=system.clk_domain
entry_size=64
eventq_index=0
indexing_policy=system.cache_hierarchy.l1icaches1.tags.indexing_policy
power_model=
power_state=system.cache_hierarchy.l1icaches1.tags.power_state
replacement_policy=system.cache_hierarchy.l1icaches1.replacement_policy
sequential_access=false
size=32768
system=system
tag_latency=1
warmup_percentage=0

[system.cache_hierarchy.l1icaches1.tags.indexing_policy]
type=SetAssociative
assoc=8
entry_size=64
eventq_index=0
size=32768

[system.cache_hierarchy.l1icaches1.tags.power_state]
type=PowerState
clk_gate_bins=20
clk_gate_max=1000000000000
clk_gate_min=1000
default_state=UNDEFINED
eventq_index=0
leaders=
possible_states=

[system.cache_hierarchy.l2buses0]
type=CoherentXBar
children=power_state snoop_filter
clk_domain=system.clk_domain
eventq_index=0
forward_latency=0
frontend_latency=1
header_latency=1
max_outstanding_snoops=512
max_routing_table_size=512
point_of_coherency=false
point_of_unification=true
power_model=
power_state=system.cache_hierarchy.l2buses0.power_state
response_latency=1
snoop_filter=system.cache_hierarchy.l2buses0.snoop_filter
snoop_response_latency=1
system=system
use_default_range=false
width=32
cpu_side_ports=system.cache_hierarchy.l1icaches0.mem_side system.cache_hierarchy.l1dcaches0.mem_side system.cache_hierarchy.iptw_caches0.mem_side system.cache_hierarchy.dptw_caches0.mem_side
mem_side_ports=system.cache_hierarchy.l2caches0.cpu_side

[system.cache_hierarchy.l2buses0.power_state]
type=PowerState
clk_gate_bins=20
clk_gate_max=1000000000000
clk_gate_min=1000
default_state=UNDEFINED
eventq_index=0
leaders=
possible_states=

[system.cache_hierarchy.l2buses0.snoop_filter]
type=SnoopFilter
eventq_index=0
lookup_latency=0
max_capacity=8388608
system=system

[system.cache_hierarchy.l2buses1]
type=CoherentXBar
children=power_state snoop_filter
clk_domain=system.clk_domain
eventq_index=0
forward_latency=0
frontend_latency=1
header_latency=1
max_outstanding_snoops=512
max_routing_table_size=512
point_of_coherency=false
point_of_unification=true
power_model=
power_state=system.cache_hierarchy.l2buses1.power_state
response_latency=1
snoop_filter=system.cache_hierarchy.l2buses1.snoop_filter
snoop_response_latency=1
system=system
use_default_range=false
width=32
cpu_side_ports=system.cache_hierarchy.l1icaches1.mem_side system.cache_hierarchy.l1dcaches1.mem_side system.cache_hierarchy.iptw_caches1.mem_side system.cache_hierarchy.dptw_caches1.mem_side
mem_side_ports=system.cache_hierarchy.l2caches1.cpu_side

[system.cache_hierarchy.l2buses1.power_state]
type=PowerState
clk_gate_bins=20
clk_gate_max=1000000000000
clk_gate_min=1000
default_state=UNDEFINED
eventq_index=0
leaders=
possible_states=

[system.cache_hierarchy.l2buses1.snoop_filter]
type=SnoopFilter
eventq_index=0
lookup_latency=0
max_capacity=8388608
system=system

[system.cache_hierarchy.l2caches0]
type=Cache
children=power_state prefetcher replacement_policy tags
addr_ranges=0:18446744073709551615
assoc=16
clk_domain=system.clk_domain
clusivity=mostly_incl
compressor=Null
data_latency=10
demand_mshr_reserve=1
eventq_index=0
is_read_only=false
max_miss_count=0
move_contractions=true
mshrs=20
power_model=
power_state=system.cache_hierarchy.l2caches0.power_state
prefetch_on_access=false
prefetch_on_pf_hit=false
prefetcher=system.cache_hierarchy.l2caches0.prefetcher
replace_expansions=true
replacement_policy=system.cache_hierarchy.l2caches0.replacement_policy
response_latency=1
sequential_access=false
size=524288
system=system
tag_latency=10
tags=system.cache_hierarchy.l2caches0.tags
tgts_per_mshr=12
warmup_percentage=0
write_allocator=Null
write_buffers=8
writeback_clean=true
cpu_side=system.cache_hierarchy.l2buses0.mem_side_ports[0]
mem_side=system.cache_hierarchy.membus.cpu_side_ports[3]

[system.cache_hierarchy.l2caches0.power_state]
type=PowerState
clk_gate_bins=20
clk_gate_max=1000000000000
clk_gate_min=1000
default_state=UNDEFINED
eventq_index=0
leaders=
possible_states=

[system.cache_hierarchy.l2caches0.prefetcher]
type=StridePrefetcher
children=power_state table_indexing_policy table_replacement_policy
block_size=64
cache_snoop=false
clk_domain=system.clk_domain
confidence_counter_bits=3
confidence_threshold=50
degree=4
eventq_index=0
initial_confidence=4
latency=1
max_prefetch_requests_with_pending_translation=32
on_data=true
on_inst=false
on_miss=false
on_read=true
on_write=true
page_bytes=4096
power_model=
power_state=system.cache_hierarchy.l2caches0.prefetcher.power_state
prefetch_on_access=false
prefetch_on_pf_hit=false
queue_filter=true
queue_size=32
queue_squash=true
sys=system
table_assoc=4
table_entries=64
table_indexing_policy=system.cache_hierarchy.l2caches0.prefetcher.table_indexing_policy